
#======================================================================
# CRYSTAL DATA
#----------------------------------------------------------------------
data_VESTA_phase_1

_chemical_name_common                  'OPT_STEP_2'
_cell_length_a                         5.522519
_cell_length_b                         6.790863
_cell_length_c                         9.345013
_cell_angle_alpha                      90.000000
_cell_angle_beta                       94.894737
_cell_angle_gamma                      90.000000
_cell_volume                           349.184845
_space_group_name_H-M_alt              'P 1'
_space_group_IT_number                 1

loop_
_space_group_symop_operation_xyz
   'x, y, z'

loop_
   _atom_site_label
   _atom_site_occupancy
   _atom_site_fract_x
   _atom_site_fract_y
   _atom_site_fract_z
   _atom_site_adp_type
   _atom_site_U_iso_or_equiv
   _atom_site_type_symbol
   CA1        1.0     0.224191     0.346042     0.432244    Uiso  ? Ca
   CA1        1.0     0.775809     0.653958     0.567756    Uiso  ? Ca
   CA1        1.0     0.275809     0.846042     0.067756    Uiso  ? Ca
   CA1        1.0     0.724191     0.153958     0.932244    Uiso  ? Ca
   CA2        1.0     0.218742     0.997165     0.699081    Uiso  ? Ca
   CA2        1.0     0.781258     0.002835     0.300919    Uiso  ? Ca
   CA2        1.0     0.281258     0.497165     0.800919    Uiso  ? Ca
   CA2        1.0     0.718742     0.502835     0.199081    Uiso  ? Ca
   SI3        1.0     0.269044     0.781519     0.417394    Uiso  ? Si
   SI3        1.0     0.730956     0.218481     0.582606    Uiso  ? Si
   SI3        1.0     0.230956     0.281519     0.082606    Uiso  ? Si
   SI3        1.0     0.769044     0.718481     0.917394    Uiso  ? Si
   O4         1.0     0.217350     0.014846     0.441462    Uiso  ? O
   O4         1.0     0.782650     0.985154     0.558538    Uiso  ? O
   O4         1.0     0.282650     0.514846     0.058538    Uiso  ? O
   O4         1.0     0.717350     0.485154     0.941462    Uiso  ? O
   O5         1.0     0.011088     0.665697     0.362217    Uiso  ? O
   O5         1.0     0.988912     0.334303     0.637783    Uiso  ? O
   O5         1.0     0.488912     0.165697     0.137783    Uiso  ? O
   O5         1.0     0.511088     0.834303     0.862217    Uiso  ? O
   O6         1.0     0.480873     0.750896     0.304209    Uiso  ? O
   O6         1.0     0.519127     0.249104     0.695791    Uiso  ? O
   O6         1.0     0.019127     0.250896     0.195791    Uiso  ? O
   O6         1.0     0.980873     0.749104     0.804209    Uiso  ? O
   O7         1.0     0.349752     0.667876     0.572922    Uiso  ? O
   O7         1.0     0.650248     0.332124     0.427078    Uiso  ? O
   O7         1.0     0.150248     0.167876     0.927078    Uiso  ? O
   O7         1.0     0.849752     0.832124     0.072922    Uiso  ? O
