
#======================================================================
# CRYSTAL DATA
#----------------------------------------------------------------------
data_VESTA_phase_1

_chemical_name_common                  'OPT_STEP_2'
_cell_length_a                         7.052546
_cell_length_b                         7.052546
_cell_length_c                         25.408419
_cell_angle_alpha                      90.000000
_cell_angle_beta                       90.000000
_cell_angle_gamma                      120.000000
_cell_volume                           1094.460586
_space_group_name_H-M_alt              'P 1'
_space_group_IT_number                 1

loop_
_space_group_symop_operation_xyz
   'x, y, z'

loop_
   _atom_site_label
   _atom_site_occupancy
   _atom_site_fract_x
   _atom_site_fract_y
   _atom_site_fract_z
   _atom_site_adp_type
   _atom_site_U_iso_or_equiv
   _atom_site_type_symbol
   CA1        1.0     0.492239     0.507761     0.003021    Uiso  ? Ca
   CA1        1.0     0.492239     0.984478     0.003021    Uiso  ? Ca
   CA1        1.0     0.015522     0.507761     0.003021    Uiso  ? Ca
   CA1        1.0     0.158906     0.841094     0.336354    Uiso  ? Ca
   CA1        1.0     0.158906     0.317811     0.336354    Uiso  ? Ca
   CA1        1.0     0.682189     0.841094     0.336354    Uiso  ? Ca
   CA1        1.0     0.825572     0.174428     0.669688    Uiso  ? Ca
   CA1        1.0     0.825572     0.651145     0.669688    Uiso  ? Ca
   CA1        1.0     0.348855     0.174428     0.669688    Uiso  ? Ca
   CA2        1.0     0.175951     0.824049     0.883353    Uiso  ? Ca
   CA2        1.0     0.175951     0.351902     0.883353    Uiso  ? Ca
   CA2        1.0     0.648098     0.824049     0.883353    Uiso  ? Ca
   CA2        1.0     0.842618     0.157382     0.216686    Uiso  ? Ca
   CA2        1.0     0.842618     0.685235     0.216686    Uiso  ? Ca
   CA2        1.0     0.314765     0.157382     0.216686    Uiso  ? Ca
   CA2        1.0     0.509284     0.490716     0.550020    Uiso  ? Ca
   CA2        1.0     0.509284     0.018569     0.550020    Uiso  ? Ca
   CA2        1.0     0.981431     0.490716     0.550020    Uiso  ? Ca
   CA3        1.0     0.158843     0.841157     0.104045    Uiso  ? Ca
   CA3        1.0     0.158843     0.317686     0.104045    Uiso  ? Ca
   CA3        1.0     0.682314     0.841157     0.104045    Uiso  ? Ca
   CA3        1.0     0.825510     0.174490     0.437378    Uiso  ? Ca
   CA3        1.0     0.825510     0.651019     0.437378    Uiso  ? Ca
   CA3        1.0     0.348981     0.174490     0.437378    Uiso  ? Ca
   CA3        1.0     0.492176     0.507824     0.770712    Uiso  ? Ca
   CA3        1.0     0.492176     0.984353     0.770712    Uiso  ? Ca
   CA3        1.0     0.015647     0.507824     0.770712    Uiso  ? Ca
   SI4        1.0     0.000000     0.000000     0.988588    Uiso  ? Si
   SI4        1.0     0.666667     0.333333     0.321921    Uiso  ? Si
   SI4        1.0     0.333333     0.666667     0.655255    Uiso  ? Si
   SI5        1.0     0.666667     0.333333     0.889293    Uiso  ? Si
   SI5        1.0     0.333333     0.666667     0.222626    Uiso  ? Si
   SI5        1.0     0.000000     0.000000     0.555960    Uiso  ? Si
   SI6        1.0     0.666667     0.333333     0.100799    Uiso  ? Si
   SI6        1.0     0.333333     0.666667     0.434132    Uiso  ? Si
   SI6        1.0     0.000000     0.000000     0.767466    Uiso  ? Si
   O7         1.0     0.000000     0.000000     0.831163    Uiso  ? O
   O7         1.0     0.666667     0.333333     0.164496    Uiso  ? O
   O7         1.0     0.333333     0.666667     0.497830    Uiso  ? O
   O8         1.0     0.333333     0.666667     0.069812    Uiso  ? O
   O8         1.0     0.000000     0.000000     0.403145    Uiso  ? O
   O8         1.0     0.666667     0.333333     0.736479    Uiso  ? O
   O9         1.0     0.000000     0.000000     0.150355    Uiso  ? O
   O9         1.0     0.666667     0.333333     0.483688    Uiso  ? O
   O9         1.0     0.333333     0.666667     0.817022    Uiso  ? O
   O10        1.0     0.000000     0.000000     0.924334    Uiso  ? O
   O10        1.0     0.666667     0.333333     0.257667    Uiso  ? O
   O10        1.0     0.333333     0.666667     0.591001    Uiso  ? O
   O11        1.0     0.333333     0.666667     0.941407    Uiso  ? O
   O11        1.0     0.000000     0.000000     0.274740    Uiso  ? O
   O11        1.0     0.666667     0.333333     0.608074    Uiso  ? O
   O12        1.0     0.666667     0.333333     0.955676    Uiso  ? O
   O12        1.0     0.333333     0.666667     0.289009    Uiso  ? O
   O12        1.0     0.000000     0.000000     0.622343    Uiso  ? O
   O13        1.0     0.792911     0.207089     0.077053    Uiso  ? O
   O13        1.0     0.792911     0.585822     0.077053    Uiso  ? O
   O13        1.0     0.414178     0.207089     0.077053    Uiso  ? O
   O13        1.0     0.459578     0.540422     0.410386    Uiso  ? O
   O13        1.0     0.459578     0.919155     0.410386    Uiso  ? O
   O13        1.0     0.080845     0.540422     0.410386    Uiso  ? O
   O13        1.0     0.126244     0.873756     0.743720    Uiso  ? O
   O13        1.0     0.126244     0.252489     0.743720    Uiso  ? O
   O13        1.0     0.747511     0.873756     0.743720    Uiso  ? O
   O14        1.0     0.539883     0.460117     0.866754    Uiso  ? O
   O14        1.0     0.539883     0.079766     0.866754    Uiso  ? O
   O14        1.0     0.920234     0.460117     0.866754    Uiso  ? O
   O14        1.0     0.206550     0.793450     0.200087    Uiso  ? O
   O14        1.0     0.206550     0.413099     0.200087    Uiso  ? O
   O14        1.0     0.586901     0.793450     0.200087    Uiso  ? O
   O14        1.0     0.873216     0.126784     0.533421    Uiso  ? O
   O14        1.0     0.873216     0.746433     0.533421    Uiso  ? O
   O14        1.0     0.253567     0.126784     0.533421    Uiso  ? O
   O15        1.0     0.128753     0.871247     0.007576    Uiso  ? O
   O15        1.0     0.128753     0.257506     0.007576    Uiso  ? O
   O15        1.0     0.742494     0.871247     0.007576    Uiso  ? O
   O15        1.0     0.795420     0.204580     0.340909    Uiso  ? O
   O15        1.0     0.795420     0.590839     0.340909    Uiso  ? O
   O15        1.0     0.409161     0.204580     0.340909    Uiso  ? O
   O15        1.0     0.462086     0.537914     0.674243    Uiso  ? O
   O15        1.0     0.462086     0.924173     0.674243    Uiso  ? O
   O15        1.0     0.075827     0.537914     0.674243    Uiso  ? O
