
#======================================================================
# CRYSTAL DATA
#----------------------------------------------------------------------
data_VESTA_phase_1

_chemical_name_common                  'OPT_STEP_1'
_cell_length_a                         27.767355
_cell_length_b                         7.115150
_cell_length_c                         12.352568
_cell_angle_alpha                      90.000000
_cell_angle_beta                       116.482452
_cell_angle_gamma                      90.000000
_cell_volume                           2184.405772
_space_group_name_H-M_alt              'P c'
_space_group_IT_number                 7

loop_
_space_group_symop_operation_xyz
   'x, y, z'
   'x, -y, z+1/2'

loop_
   _atom_site_label
   _atom_site_occupancy
   _atom_site_fract_x
   _atom_site_fract_y
   _atom_site_fract_z
   _atom_site_adp_type
   _atom_site_U_iso_or_equiv
   _atom_site_type_symbol
   CA1        1.0    -0.011149     0.013207    -0.498732    Uiso  ? Ca
   CA2        1.0    -0.118014     0.236433    -0.047320    Uiso  ? Ca
   CA3        1.0     0.015327     0.240106    -0.217487    Uiso  ? Ca
   CA4        1.0     0.097257     0.225940    -0.484651    Uiso  ? Ca
   CA5        1.0     0.220674     0.249059    -0.052750    Uiso  ? Ca
   CA6        1.0     0.340678     0.247677    -0.241014    Uiso  ? Ca
   CA7        1.0     0.447223     0.248364    -0.456853    Uiso  ? Ca
   CA8        1.0    -0.441240     0.249621    -0.042613    Uiso  ? Ca
   CA9        1.0    -0.325553     0.246539    -0.245129    Uiso  ? Ca
   CA10       1.0    -0.227936     0.250239    -0.466010    Uiso  ? Ca
   CA11       1.0    -0.007487    -0.495051     0.012551    Uiso  ? Ca
   CA12       1.0    -0.103852     0.010589    -0.275352    Uiso  ? Ca
   CA13       1.0    -0.223831    -0.475900     0.260843    Uiso  ? Ca
   CA14       1.0    -0.102598     0.472037    -0.262115    Uiso  ? Ca
   CA15       1.0     0.110445    -0.477289     0.253796    Uiso  ? Ca
   CA16       1.0     0.226526    -0.475161     0.225934    Uiso  ? Ca
   CA17       1.0     0.335311     0.499531     0.004521    Uiso  ? Ca
   CA18       1.0    -0.331717     0.488783    -0.492557    Uiso  ? Ca
   CA19       1.0    -0.437502     0.476674    -0.267750    Uiso  ? Ca
   CA20       1.0     0.449599    -0.477978     0.269037    Uiso  ? Ca
   CA21       1.0     0.113640     0.003107     0.261900    Uiso  ? Ca
   CA22       1.0     0.226225     0.011277    -0.273944    Uiso  ? Ca
   CA23       1.0     0.333431     0.003177    -0.497206    Uiso  ? Ca
   CA24       1.0    -0.330426     0.006001    -0.491829    Uiso  ? Ca
   CA25       1.0     0.449285    -0.021376     0.268068    Uiso  ? Ca
   CA26       1.0    -0.437087     0.022075    -0.266679    Uiso  ? Ca
   CA27       1.0    -0.222407    -0.012837     0.262245    Uiso  ? Ca
   SI28       1.0    -0.000715     0.238527     0.251822    Uiso  ? Si
   SI29       1.0     0.217540     0.256765     0.465971    Uiso  ? Si
   SI30       1.0     0.112623     0.265942     0.041049    Uiso  ? Si
   SI31       1.0     0.332178     0.250942     0.244221    Uiso  ? Si
   SI32       1.0    -0.449406     0.249329     0.465531    Uiso  ? Si
   SI33       1.0     0.450146     0.249797     0.030995    Uiso  ? Si
   SI34       1.0    -0.340235     0.251793     0.242651    Uiso  ? Si
   SI35       1.0    -0.126264     0.259344     0.456185    Uiso  ? Si
   SI36       1.0    -0.212566     0.253658     0.035437    Uiso  ? Si
   O37        1.0     0.042472     0.233474    -0.366825    Uiso  ? O
   O38        1.0    -0.043697     0.142915     0.123168    Uiso  ? O
   O39        1.0     0.021910     0.439953     0.224725    Uiso  ? O
   O40        1.0    -0.029245     0.273347     0.343845    Uiso  ? O
   O41        1.0     0.047344     0.081463     0.317874    Uiso  ? O
   O42        1.0     0.151205     0.272087     0.412064    Uiso  ? O
   O43        1.0     0.240968     0.443299     0.424068    Uiso  ? O
   O44        1.0     0.247925     0.246155    -0.384191    Uiso  ? O
   O45        1.0     0.234299     0.061684     0.417248    Uiso  ? O
   O46        1.0     0.077047     0.459806     0.025491    Uiso  ? O
   O47        1.0     0.126693     0.246470    -0.077658    Uiso  ? O
   O48        1.0    -0.041498     0.244154    -0.127739    Uiso  ? O
   O49        1.0     0.077183     0.085355     0.051126    Uiso  ? O
   O50        1.0     0.164941     0.272911     0.175782    Uiso  ? O
   O51        1.0     0.265658     0.250864     0.162039    Uiso  ? O
   O52        1.0     0.357342     0.060924     0.210876    Uiso  ? O
   O53        1.0     0.347702     0.249831     0.390287    Uiso  ? O
   O54        1.0     0.357547     0.442031     0.212733    Uiso  ? O
   O55        1.0     0.483220     0.248738     0.399627    Uiso  ? O
   O56        1.0    -0.427357     0.060526     0.423703    Uiso  ? O
   O57        1.0    -0.423486     0.249282    -0.385226    Uiso  ? O
   O58        1.0    -0.428329     0.439376     0.422534    Uiso  ? O
   O59        1.0    -0.165442     0.248154    -0.263300    Uiso  ? O
   O60        1.0     0.384483     0.246577    -0.023459    Uiso  ? O
   O61        1.0     0.466220     0.249624    -0.082681    Uiso  ? O
   O62        1.0     0.473706     0.060171     0.114365    Uiso  ? O
   O63        1.0     0.472445     0.442152     0.112400    Uiso  ? O
   O64        1.0    -0.407560     0.250516     0.167937    Uiso  ? O
   O65        1.0    -0.316374     0.064458     0.205359    Uiso  ? O
   O66        1.0    -0.323887     0.247748     0.387841    Uiso  ? O
   O67        1.0    -0.317307     0.442731     0.206709    Uiso  ? O
   O68        1.0    -0.193651     0.261191     0.394210    Uiso  ? O
   O69        1.0    -0.106747     0.456761     0.417288    Uiso  ? O
   O70        1.0     0.162978     0.241470    -0.277429    Uiso  ? O
   O71        1.0    -0.096051     0.251328    -0.395001    Uiso  ? O
   O72        1.0    -0.112230     0.070221     0.397780    Uiso  ? O
   O73        1.0    -0.240513     0.437255     0.064653    Uiso  ? O
   O74        1.0    -0.225299     0.245167    -0.108670    Uiso  ? O
   O75        1.0    -0.236805     0.063747     0.068907    Uiso  ? O
   O76        1.0    -0.146220     0.263395     0.113981    Uiso  ? O
   O77        1.0     0.389912     0.249585    -0.365351    Uiso  ? O
   O78        1.0     0.282642     0.241955    -0.135991    Uiso  ? O
   O79        1.0    -0.367079     0.250907    -0.117672    Uiso  ? O
   O80        1.0    -0.283663     0.247283    -0.366774    Uiso  ? O
   O81        1.0    -0.491126     0.249544    -0.246121    Uiso  ? O
