
#======================================================================
# CRYSTAL DATA
#----------------------------------------------------------------------
data_VESTA_phase_1

_chemical_name_common                  'OPT_STEP_1'
_cell_length_a                         12.227407
_cell_length_b                         7.108991
_cell_length_c                         9.170282
_cell_angle_alpha                      90.000000
_cell_angle_beta                       115.859100
_cell_angle_gamma                      90.000000
_cell_volume                           717.306058
_space_group_name_H-M_alt              'C m'
_space_group_IT_number                 8

loop_
_space_group_symop_operation_xyz
   'x, y, z'
   'x, -y, z'
   'x+1/2, y+1/2, z'
   'x+1/2, -y+1/2, z'

loop_
   _atom_site_label
   _atom_site_occupancy
   _atom_site_fract_x
   _atom_site_fract_y
   _atom_site_fract_z
   _atom_site_adp_type
   _atom_site_U_iso_or_equiv
   _atom_site_type_symbol
   CA1        1.0     0.271216    -0.000000     0.294809    Uiso  ? Ca
   CA2        1.0     0.006924     0.251972     0.343209    Uiso  ? Ca
   CA3        1.0    -0.020928    -0.263617    -0.295554    Uiso  ? Ca
   CA4        1.0    -0.233177    -0.238035    -0.012026    Uiso  ? Ca
   CA5        1.0    -0.315955     0.000000    -0.352660    Uiso  ? Ca
   CA6        1.0     0.043061    -0.500000     0.041503    Uiso  ? Ca
   SI7        1.0    -0.207989     0.000000     0.356680    Uiso  ? Si
   SI8        1.0     0.215915     0.000000    -0.350881    Uiso  ? Si
   SI9        1.0    -0.002829     0.000000    -0.009114    Uiso  ? Si
   O10        1.0    -0.082006     0.000000    -0.474083    Uiso  ? O
   O11        1.0    -0.133837     0.500000    -0.244991    Uiso  ? O
   O12        1.0     0.163636     0.190721    -0.300705    Uiso  ? O
   O13        1.0    -0.118036     0.000000    -0.189965    Uiso  ? O
   O14        1.0     0.163917    -0.000000     0.447797    Uiso  ? O
   O15        1.0     0.470562    -0.000000     0.496694    Uiso  ? O
   O16        1.0     0.297323    -0.309600     0.257573    Uiso  ? O
   O17        1.0     0.159239     0.500000     0.369891    Uiso  ? O
   O18        1.0    -0.365629    -0.000000    -0.133733    Uiso  ? O
   O19        1.0     0.080155    -0.187029     0.006756    Uiso  ? O
   O20        1.0    -0.109810     0.500000     0.125173    Uiso  ? O
   O21        1.0    -0.059186    -0.000000     0.125776    Uiso  ? O
