
#======================================================================
# CRYSTAL DATA
#----------------------------------------------------------------------
data_VESTA_phase_1

_chemical_name_common                  'OPT_STEP_1'
_cell_length_a                         11.619192
_cell_length_b                         14.243739
_cell_length_c                         13.653522
_cell_angle_alpha                      104.875900
_cell_angle_beta                       94.872643
_cell_angle_gamma                      90.040932
_cell_volume                           2175.445438
_space_group_name_H-M_alt              'P -1'
_space_group_IT_number                 2

loop_
_space_group_symop_operation_xyz
   'x, y, z'
   '-x, -y, -z'

loop_
   _atom_site_label
   _atom_site_occupancy
   _atom_site_fract_x
   _atom_site_fract_y
   _atom_site_fract_z
   _atom_site_adp_type
   _atom_site_U_iso_or_equiv
   _atom_site_type_symbol
   CA1        1.0    -0.292119     0.002623    -0.028129    Uiso  ? Ca
   CA2        1.0     0.354033     0.151717    -0.349965    Uiso  ? Ca
   CA3        1.0    -0.321614     0.322577     0.333437    Uiso  ? Ca
   CA4        1.0    -0.153331     0.164759     0.169129    Uiso  ? Ca
   CA5        1.0     0.192244     0.327435    -0.184629    Uiso  ? Ca
   CA6        1.0     0.333496     0.408845    -0.351907    Uiso  ? Ca
   CA7        1.0    -0.352780     0.083507     0.333310    Uiso  ? Ca
   CA8        1.0     0.056066     0.166099    -0.381659    Uiso  ? Ca
   CA9        1.0    -0.355289     0.181354    -0.276694    Uiso  ? Ca
   CA10       1.0     0.382847     0.347038     0.303419    Uiso  ? Ca
   CA11       1.0    -0.032014     0.335312     0.368128    Uiso  ? Ca
   CA12       1.0     0.049040     0.396291    -0.376913    Uiso  ? Ca
   CA13       1.0     0.358693     0.052517     0.288441    Uiso  ? Ca
   CA14       1.0    -0.379048     0.415033    -0.286117    Uiso  ? Ca
   CA15       1.0    -0.031541     0.103358     0.374655    Uiso  ? Ca
   CA16       1.0     0.466391     0.094131    -0.148557    Uiso  ? Ca
   CA17       1.0     0.213641     0.241120     0.463618    Uiso  ? Ca
   CA18       1.0    -0.191262     0.246121    -0.484232    Uiso  ? Ca
   CA19       1.0    -0.461069     0.414463     0.151778    Uiso  ? Ca
   CA20       1.0    -0.298733     0.488202    -0.040472    Uiso  ? Ca
   CA21       1.0    -0.272268     0.236746    -0.030022    Uiso  ? Ca
   CA22       1.0     0.304694     0.278012     0.023837    Uiso  ? Ca
   CA23       1.0    -0.125351     0.081317    -0.182349    Uiso  ? Ca
   CA24       1.0     0.140017     0.426451     0.186527    Uiso  ? Ca
   CA25       1.0     0.020693     0.261499    -0.009591    Uiso  ? Ca
   CA26       1.0     0.000000     0.000000     0.000000    Uiso  ? Ca
   CA27       1.0     0.000000     0.500000     0.000000    Uiso  ? Ca
   CA28       1.0     0.500000     0.000000     0.500000    Uiso  ? Ca
   CA29       1.0     0.500000     0.500000     0.500000    Uiso  ? Ca
   SI30       1.0    -0.170174     0.416517     0.165349    Uiso  ? Si
   SI31       1.0     0.474102     0.343935    -0.128201    Uiso  ? Si
   SI32       1.0     0.160701     0.078809    -0.182080    Uiso  ? Si
   SI33       1.0    -0.199723     0.019458    -0.453639    Uiso  ? Si
   SI34       1.0     0.191210     0.497630     0.448659    Uiso  ? Si
   SI35       1.0    -0.476047     0.155517     0.121650    Uiso  ? Si
   SI36       1.0     0.153574     0.181487     0.204535    Uiso  ? Si
   SI37       1.0    -0.125779     0.321567    -0.217593    Uiso  ? Si
   SI38       1.0     0.492547     0.247333    -0.495998    Uiso  ? Si
   O39        1.0     0.033907     0.194853     0.263679    Uiso  ? O
   O40        1.0    -0.485627     0.266941     0.194614    Uiso  ? O
   O41        1.0    -0.345581     0.146618     0.079884    Uiso  ? O
   O42        1.0     0.157455     0.065764     0.138900    Uiso  ? O
   O43        1.0     0.223334     0.269061    -0.357249    Uiso  ? O
   O44        1.0    -0.493873     0.056832    -0.324208    Uiso  ? O
   O45        1.0     0.419361     0.132937     0.024666    Uiso  ? O
   O46        1.0     0.265433     0.206721     0.292357    Uiso  ? O
   O47        1.0    -0.332071     0.095379    -0.143927    Uiso  ? O
   O48        1.0     0.008720     0.258855     0.494066    Uiso  ? O
   O49        1.0    -0.492322     0.075260     0.188651    Uiso  ? O
   O50        1.0     0.159776     0.256662     0.130173    Uiso  ? O
   O51        1.0    -0.175019     0.394959     0.472235    Uiso  ? O
   O52        1.0     0.315629     0.498749     0.398318    Uiso  ? O
   O53        1.0     0.182046     0.412407    -0.489870    Uiso  ? O
   O54        1.0     0.337486     0.430510     0.175436    Uiso  ? O
   O55        1.0     0.158617     0.391809    -0.015886    Uiso  ? O
   O56        1.0     0.082131     0.472513     0.355182    Uiso  ? O
   O57        1.0     0.280073     0.056982    -0.240023    Uiso  ? O
   O58        1.0    -0.050969     0.401412     0.104015    Uiso  ? O
   O59        1.0     0.160741     0.192856    -0.113615    Uiso  ? O
   O60        1.0     0.146905     0.005979    -0.106152    Uiso  ? O
   O61        1.0    -0.198267     0.181273     0.333641    Uiso  ? O
   O62        1.0    -0.102377     0.140716     0.001011    Uiso  ? O
   O63        1.0    -0.442264     0.452147     0.338471    Uiso  ? O
   O64        1.0     0.046820     0.058757    -0.269448    Uiso  ? O
   O65        1.0    -0.388123     0.239276     0.445634    Uiso  ? O
   O66        1.0    -0.232327     0.053018    -0.334468    Uiso  ? O
   O67        1.0     0.443197     0.390265    -0.009266    Uiso  ? O
   O68        1.0    -0.385415     0.324697    -0.137122    Uiso  ? O
   O69        1.0     0.001024     0.307684    -0.265342    Uiso  ? O
   O70        1.0    -0.314682     0.020073     0.467958    Uiso  ? O
   O71        1.0    -0.137682     0.244811    -0.146602    Uiso  ? O
   O72        1.0    -0.283372     0.394224     0.078756    Uiso  ? O
   O73        1.0    -0.229155     0.301013    -0.313377    Uiso  ? O
   O74        1.0    -0.107471     0.097869    -0.474895    Uiso  ? O
   O75        1.0    -0.139329     0.431172    -0.141925    Uiso  ? O
   O76        1.0     0.413558     0.144978     0.463579    Uiso  ? O
   O77        1.0     0.146441     0.090279     0.472917    Uiso  ? O
   O78        1.0    -0.173318     0.334495     0.231997    Uiso  ? O
   O79        1.0     0.395446     0.242975    -0.169016    Uiso  ? O
   O80        1.0    -0.484562     0.267654    -0.370566    Uiso  ? O
   O81        1.0     0.415908     0.339814     0.482261    Uiso  ? O
   O82        1.0     0.180738     0.473629    -0.241743    Uiso  ? O
   O83        1.0     0.439790     0.421720    -0.196406    Uiso  ? O
