
#======================================================================
# CRYSTAL DATA
#----------------------------------------------------------------------
data_VESTA_phase_1

_chemical_name_common                  'OPT_STEP_1'
_cell_length_a                         14.514019
_cell_length_b                         5.603282
_cell_length_c                         5.334235
_cell_angle_alpha                      90.000000
_cell_angle_beta                       90.000000
_cell_angle_gamma                      90.000000
_cell_volume                           433.812801
_space_group_name_H-M_alt              'P 1'
_space_group_IT_number                 1

loop_
_space_group_symop_operation_xyz
   'x, y, z'

loop_
   _atom_site_label
   _atom_site_occupancy
   _atom_site_fract_x
   _atom_site_fract_y
   _atom_site_fract_z
   _atom_site_adp_type
   _atom_site_U_iso_or_equiv
   _atom_site_type_symbol
   CA1        1.0     0.109530    -0.471603     0.010183    Uiso  ? Ca
   CA2        1.0    -0.390470     0.028397    -0.489817    Uiso  ? Ca
   CA3        1.0    -0.109530     0.471603     0.010183    Uiso  ? Ca
   CA4        1.0     0.390470    -0.028397    -0.489817    Uiso  ? Ca
   CA5        1.0    -0.109691     0.028044    -0.486554    Uiso  ? Ca
   CA6        1.0     0.390309    -0.471956     0.013446    Uiso  ? Ca
   CA7        1.0     0.109691    -0.028044    -0.486554    Uiso  ? Ca
   CA8        1.0    -0.390309     0.471956     0.013446    Uiso  ? Ca
   FE9        1.0    -0.000000     0.000000     0.001122    Uiso  ? Fe
   FE10       1.0     0.500000     0.500000    -0.498878    Uiso  ? Fe
   FE11       1.0     0.000000    -0.500000     0.498350    Uiso  ? Fe
   FE12       1.0     0.500000     0.000000    -0.001650    Uiso  ? Fe
   AL13       1.0     0.249990     0.072159     0.042465    Uiso  ? Al
   AL14       1.0    -0.250010    -0.427841    -0.457535    Uiso  ? Al
   AL15       1.0    -0.249990    -0.072159     0.042465    Uiso  ? Al
   AL16       1.0     0.250010     0.427841    -0.457535    Uiso  ? Al
   O17        1.0     0.018059     0.244917     0.254543    Uiso  ? O
   O18        1.0    -0.481941    -0.255083    -0.245457    Uiso  ? O
   O19        1.0    -0.018059    -0.244917     0.254543    Uiso  ? O
   O20        1.0     0.481941     0.255083    -0.245457    Uiso  ? O
   O21        1.0    -0.015104    -0.255069    -0.245540    Uiso  ? O
   O22        1.0     0.484896     0.244931     0.254460    Uiso  ? O
   O23        1.0     0.015104     0.255069    -0.245540    Uiso  ? O
   O24        1.0    -0.484896    -0.244931     0.254460    Uiso  ? O
   O25        1.0     0.146369    -0.424233     0.472116    Uiso  ? O
   O26        1.0    -0.353631     0.075767    -0.027884    Uiso  ? O
   O27        1.0    -0.146369     0.424233     0.472116    Uiso  ? O
   O28        1.0     0.353631    -0.075767    -0.027884    Uiso  ? O
   O29        1.0    -0.146395     0.075261    -0.027613    Uiso  ? O
   O30        1.0     0.353605    -0.424739     0.472387    Uiso  ? O
   O31        1.0     0.146395    -0.075261    -0.027613    Uiso  ? O
   O32        1.0    -0.353605     0.424739     0.472387    Uiso  ? O
   O33        1.0    -0.249849    -0.355689    -0.123336    Uiso  ? O
   O34        1.0     0.250151     0.144311     0.376664    Uiso  ? O
   O35        1.0     0.249849     0.355689    -0.123336    Uiso  ? O
   O36        1.0    -0.250151    -0.144311     0.376664    Uiso  ? O

#======================================================================
# CRYSTAL DATA
#----------------------------------------------------------------------
data_VESTA_phase_2

_chemical_name_common                  'OPT_STEP_2'
_cell_length_a                         14.514019
_cell_length_b                         5.603282
_cell_length_c                         5.334235
_cell_angle_alpha                      90.000000
_cell_angle_beta                       90.000000
_cell_angle_gamma                      90.000000
_cell_volume                           433.812801
_space_group_name_H-M_alt              'P 1'
_space_group_IT_number                 1

loop_
_space_group_symop_operation_xyz
   'x, y, z'

loop_
   _atom_site_label
   _atom_site_occupancy
   _atom_site_fract_x
   _atom_site_fract_y
   _atom_site_fract_z
   _atom_site_adp_type
   _atom_site_U_iso_or_equiv
   _atom_site_type_symbol
   CA1        1.0     0.109530    -0.471603     0.010183    Uiso  ? Ca
   CA2        1.0    -0.390470     0.028397    -0.489817    Uiso  ? Ca
   CA3        1.0    -0.109530     0.471603     0.010183    Uiso  ? Ca
   CA4        1.0     0.390470    -0.028397    -0.489817    Uiso  ? Ca
   CA5        1.0    -0.109691     0.028044    -0.486554    Uiso  ? Ca
   CA6        1.0     0.390309    -0.471956     0.013446    Uiso  ? Ca
   CA7        1.0     0.109691    -0.028044    -0.486554    Uiso  ? Ca
   CA8        1.0    -0.390309     0.471956     0.013446    Uiso  ? Ca
   FE9        1.0    -0.000000     0.000000     0.001122    Uiso  ? Fe
   FE10       1.0    -0.500000     0.500000    -0.498878    Uiso  ? Fe
   FE11       1.0     0.000000     0.500000     0.498350    Uiso  ? Fe
   FE12       1.0    -0.500000     0.000000    -0.001650    Uiso  ? Fe
   AL13       1.0     0.249990     0.072159     0.042465    Uiso  ? Al
   AL14       1.0    -0.250010    -0.427841    -0.457535    Uiso  ? Al
   AL15       1.0    -0.249990    -0.072159     0.042465    Uiso  ? Al
   AL16       1.0     0.250010     0.427841    -0.457535    Uiso  ? Al
   O17        1.0     0.018059     0.244917     0.254543    Uiso  ? O
   O18        1.0    -0.481941    -0.255083    -0.245457    Uiso  ? O
   O19        1.0    -0.018059    -0.244917     0.254543    Uiso  ? O
   O20        1.0     0.481941     0.255083    -0.245457    Uiso  ? O
   O21        1.0    -0.015104    -0.255069    -0.245540    Uiso  ? O
   O22        1.0     0.484896     0.244931     0.254460    Uiso  ? O
   O23        1.0     0.015104     0.255069    -0.245540    Uiso  ? O
   O24        1.0    -0.484896    -0.244931     0.254460    Uiso  ? O
   O25        1.0     0.146369    -0.424233     0.472116    Uiso  ? O
   O26        1.0    -0.353631     0.075767    -0.027884    Uiso  ? O
   O27        1.0    -0.146369     0.424233     0.472116    Uiso  ? O
   O28        1.0     0.353631    -0.075767    -0.027884    Uiso  ? O
   O29        1.0    -0.146395     0.075261    -0.027613    Uiso  ? O
   O30        1.0     0.353605    -0.424739     0.472387    Uiso  ? O
   O31        1.0     0.146395    -0.075261    -0.027613    Uiso  ? O
   O32        1.0    -0.353605     0.424739     0.472387    Uiso  ? O
   O33        1.0    -0.249849    -0.355689    -0.123336    Uiso  ? O
   O34        1.0     0.250151     0.144311     0.376664    Uiso  ? O
   O35        1.0     0.249849     0.355689    -0.123336    Uiso  ? O
   O36        1.0    -0.250151    -0.144311     0.376664    Uiso  ? O
